xflr5 v6.47

Kea Atmos
T4-2.0°-VLM2
QInf  =   20.000000 m/s
Alpha =    2.000000
Beta  =    0.000°
Phi   =    0.000°
Ctrl  =    0.000
CL    =    0.834569
Cy    =   -0.000000
Cd    =    0.023658     ICd   =    0.012528     PCd   =    0.011131
Cl   = 3.47646e-17
Cm   =   -0.124199
ICn   =    0.000000     PCn   =    0.000000 
XCP   =    0.600947     YCP   =   -0.000000     ZCP   =    0.096805  
XNP   =    0.000000
Bending =   12.813120

Main Wing
  y-span        Chord      Ai         Cl        PCd          ICd        CmGeom    CmAirf@chord/4    XTrtop    XTrBot      XCP       BM
   -2.9313     0.3000    -4.185    0.389790    0.021601    0.028520   -0.085569   -0.132745     0.8927    0.0463    0.5935    0.0000
   -2.8639     0.3000    -3.128    0.525849    0.013630    0.028737   -0.109764   -0.162369     0.8828    0.1086    0.5613    0.0067
   -2.7965     0.3000    -2.538    0.604797    0.011651    0.026813   -0.116203   -0.174266     0.8723    0.3201    0.5404    0.0224
   -2.7291     0.3000    -2.148    0.658040    0.010601    0.024685   -0.117878   -0.180125     0.8632    0.5455    0.5259    0.0485
   -2.6617     0.3000    -1.868    0.696796    0.010047    0.022720   -0.117732   -0.183410     0.8552    0.7693    0.5152    0.0860
   -2.5943     0.3000    -1.654    0.726359    0.009624    0.020980   -0.116923   -0.185437     0.8490    0.9401    0.5072    0.1353
   -2.5270     0.3000    -1.486    0.749645    0.009495    0.019453   -0.115736   -0.186781     0.8442    0.9875    0.5010    0.1972
   -2.4596     0.3000    -1.350    0.768425    0.009475    0.018114   -0.114433   -0.187724     0.8404    0.9896    0.4961    0.2720
   -2.3922     0.3000    -1.238    0.783853    0.009458    0.016936   -0.113133   -0.188415     0.8372    0.9914    0.4921    0.3599
   -2.3248     0.3000    -1.143    0.796719    0.009444    0.015898   -0.111862   -0.188939     0.8346    0.9928    0.4888    0.4613
   -2.2574     0.3000    -1.063    0.807584    0.009433    0.014978   -0.110629   -0.189348     0.8323    0.9941    0.4861    0.5764
   -2.1900     0.3000    -0.993    0.816862    0.009423    0.014161   -0.109438   -0.189675     0.8304    0.9951    0.4838    0.7054
   -2.1226     0.3000    -0.933    0.824860    0.009414    0.013433   -0.108286   -0.189944     0.8288    0.9960    0.4819    0.8483
   -2.0552     0.3000    -0.880    0.831818    0.009407    0.012781   -0.107173   -0.190171     0.8273    0.9968    0.4802    1.0055
   -1.9878     0.3000    -0.834    0.837920    0.009400    0.012196   -0.106095   -0.190367     0.8261    0.9975    0.4788    1.1770
   -1.9204     0.3000    -0.793    0.843315    0.009395    0.011670   -0.105052   -0.190543     0.8250    0.9981    0.4775    1.3628
   -1.8530     0.3000    -0.756    0.848125    0.009389    0.011196   -0.104043   -0.190707     0.8240    0.9987    0.4764    1.5631
   -1.7857     0.3000    -0.724    0.852451    0.009385    0.010768   -0.103068   -0.190870     0.8231    0.9992    0.4754    1.7780
   -1.7183     0.3000    -0.695    0.856382    0.009381    0.010384   -0.102133   -0.191041     0.8223    0.9996    0.4746    2.0076
   -1.6509     0.3000    -0.669    0.860002    0.009377    0.010043   -0.101244   -0.191237     0.8214    1.0000    0.4739    2.2518
   -1.5835     0.3000    -0.647    0.863396    0.009376    0.009754   -0.100420   -0.191483     0.8205    1.0000    0.4733    2.5108
   -1.5161     0.3000    -0.631    0.866668    0.009374    0.009552   -0.099694   -0.191822     0.8196    1.0000    0.4728    2.7847
   -1.4487     0.3000    -0.635    0.869951    0.009372    0.009641   -0.099122   -0.192324     0.8187    1.0000    0.4726    3.0734
   -1.3842     0.3000    -0.629    0.872532    0.009371    0.009584   -0.099707   -0.194723     0.8180    1.0000    0.4719    3.3580
   -1.3227     0.3000    -0.590    0.873854    0.009370    0.008995   -0.099139   -0.194300     0.8176    1.0000    0.4711    3.6515
   -1.2612     0.3000    -0.569    0.875115    0.009369    0.008690   -0.098744   -0.194044     0.8173    1.0000    0.4705    3.9578
   -1.1997     0.3000    -0.553    0.876317    0.009369    0.008462   -0.098451   -0.193883     0.8170    1.0000    0.4700    4.2770
   -1.1382     0.3000    -0.540    0.877449    0.009368    0.008268   -0.098223   -0.193779     0.8167    1.0000    0.4696    4.6090
   -1.0766     0.3000    -0.528    0.878506    0.009368    0.008096   -0.098037   -0.193709     0.8164    1.0000    0.4693    4.9539
   -1.0151     0.3000    -0.517    0.879486    0.009367    0.007940   -0.097881   -0.193660     0.8161    1.0000    0.4690    5.3116
   -0.9536     0.3000    -0.507    0.880391    0.009367    0.007798   -0.097747   -0.193625     0.8159    1.0000    0.4687    5.6823
   -0.8921     0.3000    -0.499    0.881223    0.009366    0.007668   -0.097631   -0.193601     0.8156    1.0000    0.4685    6.0659
   -0.8305     0.3000    -0.491    0.881985    0.009366    0.007552   -0.097529   -0.193582     0.8154    1.0000    0.4682    6.4624
   -0.7690     0.3000    -0.484    0.882681    0.009365    0.007455   -0.097439   -0.193569     0.8152    1.0000    0.4681    6.8719
   -0.7075     0.3000    -0.479    0.883312    0.009365    0.007382   -0.097359   -0.193558     0.8151    1.0000    0.4679    7.2943
   -0.6460     0.3000    -0.476    0.883881    0.009365    0.007344   -0.097289   -0.193551     0.8149    1.0000    0.4677    7.7297
   -0.5845     0.3000    -0.476    0.884392    0.009364    0.007352   -0.097228   -0.193545     0.8148    1.0000    0.4676    8.1781
   -0.5229     0.3000    -0.480    0.884846    0.009364    0.007415   -0.097174   -0.193541     0.8146    1.0000    0.4675    8.6394
   -0.4614     0.3000    -0.487    0.885244    0.009364    0.007526   -0.097127   -0.193538     0.8145    1.0000    0.4674    9.1137
   -0.3999     0.3000    -0.496    0.885590    0.009364    0.007669   -0.097087   -0.193535     0.8144    1.0000    0.4673    9.6010
   -0.3384     0.3000    -0.506    0.885884    0.009364    0.007818   -0.097053   -0.193534     0.8143    1.0000    0.4672   10.1013
   -0.2768     0.3000    -0.514    0.886127    0.009363    0.007956   -0.097025   -0.193533     0.8143    1.0000    0.4672   10.6146
   -0.2153     0.3000    -0.522    0.886320    0.009363    0.008078   -0.097003   -0.193532     0.8142    1.0000    0.4671   11.1409
   -0.1538     0.3000    -0.529    0.886464    0.009363    0.008191   -0.096986   -0.193531     0.8142    1.0000    0.4671   11.6802
   -0.0923     0.3000    -0.538    0.886560    0.009363    0.008326   -0.096976   -0.193531     0.8142    1.0000    0.4671   12.2326
   -0.0308     0.3000    -0.517    0.886608    0.009363    0.008000   -0.096970   -0.193531     0.8142    1.0000    0.4670   12.7979
    0.0308     0.3000    -0.517    0.886608    0.009363    0.008000   -0.096970   -0.193531     0.8142    1.0000    0.4670   12.8131
    0.0923     0.3000    -0.538    0.886560    0.009363    0.008326   -0.096976   -0.193531     0.8142    1.0000    0.4671   12.2478
    0.1538     0.3000    -0.529    0.886464    0.009363    0.008191   -0.096986   -0.193531     0.8142    1.0000    0.4671   11.6955
    0.2153     0.3000    -0.522    0.886320    0.009363    0.008078   -0.097003   -0.193532     0.8142    1.0000    0.4671   11.1562
    0.2768     0.3000    -0.514    0.886127    0.009363    0.007956   -0.097025   -0.193533     0.8143    1.0000    0.4672   10.6299
    0.3384     0.3000    -0.506    0.885884    0.009364    0.007818   -0.097053   -0.193534     0.8143    1.0000    0.4672   10.1166
    0.3999     0.3000    -0.496    0.885590    0.009364    0.007669   -0.097087   -0.193535     0.8144    1.0000    0.4673    9.6163
    0.4614     0.3000    -0.487    0.885244    0.009364    0.007526   -0.097127   -0.193538     0.8145    1.0000    0.4674    9.1290
    0.5229     0.3000    -0.480    0.884846    0.009364    0.007415   -0.097174   -0.193541     0.8146    1.0000    0.4675    8.6547
    0.5845     0.3000    -0.476    0.884392    0.009364    0.007352   -0.097228   -0.193545     0.8148    1.0000    0.4676    8.1933
    0.6460     0.3000    -0.476    0.883881    0.009365    0.007344   -0.097289   -0.193551     0.8149    1.0000    0.4677    7.7450
    0.7075     0.3000    -0.479    0.883312    0.009365    0.007382   -0.097359   -0.193558     0.8151    1.0000    0.4679    7.3096
    0.7690     0.3000    -0.484    0.882681    0.009365    0.007455   -0.097439   -0.193569     0.8152    1.0000    0.4681    6.8872
    0.8305     0.3000    -0.491    0.881985    0.009366    0.007552   -0.097529   -0.193582     0.8154    1.0000    0.4682    6.4777
    0.8921     0.3000    -0.499    0.881223    0.009366    0.007668   -0.097631   -0.193601     0.8156    1.0000    0.4685    6.0811
    0.9536     0.3000    -0.507    0.880391    0.009367    0.007798   -0.097747   -0.193625     0.8159    1.0000    0.4687    5.6975
    1.0151     0.3000    -0.517    0.879486    0.009367    0.007940   -0.097881   -0.193660     0.8161    1.0000    0.4690    5.3269
    1.0766     0.3000    -0.528    0.878506    0.009368    0.008096   -0.098037   -0.193709     0.8164    1.0000    0.4693    4.9691
    1.1382     0.3000    -0.540    0.877449    0.009368    0.008268   -0.098223   -0.193779     0.8167    1.0000    0.4696    4.6242
    1.1997     0.3000    -0.553    0.876317    0.009369    0.008462   -0.098451   -0.193883     0.8170    1.0000    0.4700    4.2922
    1.2612     0.3000    -0.569    0.875115    0.009369    0.008690   -0.098744   -0.194044     0.8173    1.0000    0.4705    3.9730
    1.3227     0.3000    -0.590    0.873854    0.009370    0.008995   -0.099139   -0.194300     0.8176    1.0000    0.4711    3.6667
    1.3842     0.3000    -0.629    0.872532    0.009371    0.009584   -0.099707   -0.194723     0.8180    1.0000    0.4719    3.3732
    1.4487     0.3000    -0.635    0.869951    0.009372    0.009641   -0.099122   -0.192324     0.8187    1.0000    0.4726    3.0734
    1.5161     0.3000    -0.631    0.866668    0.009374    0.009552   -0.099694   -0.191822     0.8196    1.0000    0.4728    2.7847
    1.5835     0.3000    -0.647    0.863396    0.009376    0.009754   -0.100420   -0.191483     0.8205    1.0000    0.4733    2.5108
    1.6509     0.3000    -0.669    0.860002    0.009377    0.010043   -0.101244   -0.191237     0.8214    1.0000    0.4739    2.2518
    1.7183     0.3000    -0.695    0.856382    0.009381    0.010384   -0.102133   -0.191041     0.8223    0.9996    0.4746    2.0076
    1.7857     0.3000    -0.724    0.852451    0.009385    0.010768   -0.103068   -0.190870     0.8231    0.9992    0.4754    1.7780
    1.8530     0.3000    -0.756    0.848125    0.009389    0.011196   -0.104043   -0.190707     0.8240    0.9987    0.4764    1.5631
    1.9204     0.3000    -0.793    0.843315    0.009395    0.011670   -0.105052   -0.190543     0.8250    0.9981    0.4775    1.3628
    1.9878     0.3000    -0.834    0.837920    0.009400    0.012196   -0.106095   -0.190367     0.8261    0.9975    0.4788    1.1770
    2.0552     0.3000    -0.880    0.831818    0.009407    0.012781   -0.107173   -0.190171     0.8273    0.9968    0.4802    1.0055
    2.1226     0.3000    -0.933    0.824860    0.009414    0.013433   -0.108286   -0.189944     0.8288    0.9960    0.4819    0.8483
    2.1900     0.3000    -0.993    0.816862    0.009423    0.014161   -0.109438   -0.189675     0.8304    0.9951    0.4838    0.7054
    2.2574     0.3000    -1.063    0.807584    0.009433    0.014978   -0.110629   -0.189348     0.8323    0.9941    0.4861    0.5764
    2.3248     0.3000    -1.143    0.796719    0.009444    0.015898   -0.111862   -0.188939     0.8346    0.9928    0.4888    0.4613
    2.3922     0.3000    -1.238    0.783853    0.009458    0.016936   -0.113133   -0.188415     0.8372    0.9914    0.4921    0.3599
    2.4596     0.3000    -1.350    0.768425    0.009475    0.018114   -0.114433   -0.187724     0.8404    0.9896    0.4961    0.2720
    2.5270     0.3000    -1.486    0.749645    0.009495    0.019453   -0.115736   -0.186781     0.8442    0.9875    0.5010    0.1972
    2.5943     0.3000    -1.654    0.726359    0.009624    0.020980   -0.116923   -0.185437     0.8490    0.9401    0.5072    0.1353
    2.6617     0.3000    -1.868    0.696796    0.010047    0.022720   -0.117732   -0.183410     0.8552    0.7693    0.5152    0.0860
    2.7291     0.3000    -2.148    0.658040    0.010601    0.024685   -0.117878   -0.180125     0.8632    0.5455    0.5259    0.0485
    2.7965     0.3000    -2.538    0.604797    0.011651    0.026813   -0.116203   -0.174266     0.8723    0.3201    0.5404    0.0224
    2.8639     0.3000    -3.128    0.525849    0.013630    0.028737   -0.109764   -0.162369     0.8828    0.1086    0.5613    0.0067
    2.9313     0.3000    -4.185    0.389790    0.021601    0.028520   -0.085569   -0.132745     0.8927    0.0463    0.5935    0.0000


Elevator
  y-span        Chord      Ai         Cl        PCd          ICd        CmGeom    CmAirf@chord/4    XTrtop    XTrBot      XCP       BM
   -0.5842     0.2200    -0.569    0.015135    0.007442    0.000150   -0.069529    0.000376     0.9982    1.0000    0.2197    0.0000
   -0.5526     0.2200    -0.554    0.021698    0.007465    0.000210   -0.104032    0.000331     0.9974    1.0000    0.2314    0.0651
   -0.5211     0.2200    -0.541    0.025977    0.007479    0.000245   -0.126783    0.000225     0.9969    1.0000    0.2394    0.2179
   -0.4895     0.2200    -0.529    0.029082    0.007490    0.000269   -0.143469    0.000112     0.9965    1.0000    0.2453    0.4716
   -0.4579     0.2200    -0.519    0.031456    0.007498    0.000285   -0.156360    0.000010     0.9962    1.0000    0.2496    0.8352
   -0.4263     0.2200    -0.509    0.033331    0.007504    0.000296   -0.166658   -0.000080     0.9960    1.0000    0.2529    1.3151
   -0.3947     0.2200    -0.501    0.034849    0.007509    0.000305   -0.175096   -0.000157     0.9958    1.0000    0.2555    1.9162
   -0.3632     0.2200    -0.494    0.036105    0.007514    0.000311   -0.182164   -0.000223     0.9956    1.0000    0.2575    2.6424
   -0.3316     0.2200    -0.488    0.037164    0.007517    0.000316   -0.188208   -0.000281     0.9955    1.0000    0.2592    3.4968
   -0.3000     0.2200    -0.482    0.038076    0.007520    0.000320   -0.193483   -0.000332     0.9954    1.0000    0.2606    4.4821
   -0.2684     0.2200    -0.477    0.038878    0.007523    0.000324   -0.198185   -0.000378     0.9953    1.0000    0.2619    5.6003
   -0.2368     0.2200    -0.473    0.039601    0.007526    0.000327   -0.202473   -0.000422     0.9952    1.0000    0.2630    6.8534
   -0.2053     0.2200    -0.470    0.040269    0.007528    0.000330   -0.206475   -0.000463     0.9951    1.0000    0.2640    8.2427
   -0.1737     0.2200    -0.467    0.040904    0.007530    0.000334   -0.210301   -0.000505     0.9951    1.0000    0.2651    9.7697
   -0.1421     0.2200    -0.466    0.041523    0.007532    0.000338   -0.214047   -0.000546     0.9950    1.0000    0.2661   11.4356
   -0.1105     0.2200    -0.466    0.042142    0.007534    0.000343   -0.217785   -0.000586     0.9949    1.0000    0.2670   13.2413
   -0.0789     0.2200    -0.468    0.042772    0.007536    0.000349   -0.221572   -0.000622     0.9948    1.0000    0.2677   15.1877
   -0.0474     0.2200    -0.474    0.043391    0.007538    0.000359   -0.225290   -0.000645     0.9948    1.0000    0.2681   17.2757
   -0.0158     0.2200    -0.487    0.043982    0.007540    0.000374   -0.228823   -0.000630     0.9947    1.0000    0.2675   19.5059
    0.0158     0.2200    -0.487    0.043982    0.007540    0.000374   -0.228823   -0.000630     0.9947    1.0000    0.2675   23.2970
    0.0474     0.2200    -0.474    0.043391    0.007538    0.000359   -0.225290   -0.000645     0.9948    1.0000    0.2681   20.8276
    0.0789     0.2200    -0.468    0.042772    0.007536    0.000349   -0.221572   -0.000622     0.9948    1.0000    0.2677   18.5023
    0.1105     0.2200    -0.466    0.042142    0.007534    0.000343   -0.217785   -0.000586     0.9949    1.0000    0.2670   16.3217
    0.1421     0.2200    -0.466    0.041523    0.007532    0.000338   -0.214047   -0.000546     0.9950    1.0000    0.2661   14.2862
    0.1737     0.2200    -0.467    0.040904    0.007530    0.000334   -0.210301   -0.000505     0.9951    1.0000    0.2651   12.3853
    0.2053     0.2200    -0.470    0.040269    0.007528    0.000330   -0.206475   -0.000463     0.9951    1.0000    0.2640   10.6192
    0.2368     0.2200    -0.473    0.039601    0.007526    0.000327   -0.202473   -0.000422     0.9952    1.0000    0.2630    8.9881
    0.2684     0.2200    -0.477    0.038878    0.007523    0.000324   -0.198185   -0.000378     0.9953    1.0000    0.2619    7.4922
    0.3000     0.2200    -0.482    0.038076    0.007520    0.000320   -0.193483   -0.000332     0.9954    1.0000    0.2606    6.1316
    0.3316     0.2200    -0.488    0.037164    0.007517    0.000316   -0.188208   -0.000281     0.9955    1.0000    0.2592    4.9065
    0.3632     0.2200    -0.494    0.036105    0.007514    0.000311   -0.182164   -0.000223     0.9956    1.0000    0.2575    3.8171
    0.3947     0.2200    -0.501    0.034849    0.007509    0.000305   -0.175096   -0.000157     0.9958    1.0000    0.2555    2.8635
    0.4263     0.2200    -0.509    0.033331    0.007504    0.000296   -0.166658   -0.000080     0.9960    1.0000    0.2529    2.0458
    0.4579     0.2200    -0.519    0.031456    0.007498    0.000285   -0.156360    0.000010     0.9962    1.0000    0.2496    1.3641
    0.4895     0.2200    -0.529    0.029082    0.007490    0.000269   -0.143469    0.000112     0.9965    1.0000    0.2453    0.8186
    0.5211     0.2200    -0.541    0.025977    0.007479    0.000245   -0.126783    0.000225     0.9969    1.0000    0.2394    0.4094
    0.5526     0.2200    -0.554    0.021698    0.007465    0.000210   -0.104032    0.000331     0.9974    1.0000    0.2314    0.1365
    0.5842     0.2200    -0.569    0.015135    0.007442    0.000150   -0.069529    0.000376     0.9982    1.0000    0.2197    0.0000


Main Wing Cp Coefficients
 Panel     CtrlPt.x        CtrlPt.y        CtrlPt.z       Nx      Ny       Nz        Area       Cp
Main WingCp Coefficients
Strip 1
   0       7.489e-01      -2.913e+00       2.675e-01           0.284           0.150           0.947       3.063e-04          0.3611
   1       7.424e-01      -2.912e+00       2.693e-01           0.248           0.152           0.957       8.918e-04          0.5243
   2       7.277e-01      -2.912e+00       2.726e-01           0.178           0.154           0.972       1.406e-03          0.5116
   3       7.055e-01      -2.911e+00       2.763e-01           0.132           0.155           0.979       1.839e-03          0.5054
   4       6.772e-01      -2.911e+00       2.797e-01           0.091           0.156           0.984       2.165e-03          0.5155
   5       6.444e-01      -2.910e+00       2.822e-01           0.043           0.156           0.987       2.366e-03          0.4906
   6       6.090e-01      -2.910e+00       2.833e-01          -0.000           0.156           0.988       2.435e-03          0.4566
   7       5.731e-01      -2.910e+00       2.830e-01          -0.036           0.156           0.987       2.366e-03          0.4494
   8       5.388e-01      -2.910e+00       2.815e-01          -0.078           0.156           0.985       2.163e-03          0.4291
   9       5.080e-01      -2.911e+00       2.788e-01          -0.124           0.155           0.980       1.837e-03          0.3778
  10       4.826e-01      -2.911e+00       2.753e-01          -0.182           0.154           0.971       1.407e-03          0.2309
  11       4.640e-01      -2.912e+00       2.716e-01          -0.263           0.151           0.953       8.954e-04         -0.2442
  12       4.533e-01      -2.912e+00       2.687e-01          -0.345           0.147           0.927       3.129e-04         -1.6064
Strip 2
  13       7.489e-01      -2.846e+00       2.570e-01           0.284           0.150           0.947       3.063e-04          0.3998
  14       7.424e-01      -2.846e+00       2.587e-01           0.248           0.152           0.957       8.918e-04          0.5969
  15       7.277e-01      -2.845e+00       2.621e-01           0.178           0.154           0.972       1.406e-03          0.6203
  16       7.055e-01      -2.845e+00       2.657e-01           0.132           0.155           0.979       1.839e-03          0.6422
  17       6.772e-01      -2.844e+00       2.691e-01           0.091           0.156           0.984       2.165e-03          0.6698
  18       6.444e-01      -2.844e+00       2.717e-01           0.043           0.156           0.987       2.366e-03          0.6515
  19       6.090e-01      -2.844e+00       2.728e-01          -0.000           0.156           0.988       2.435e-03          0.6147
  20       5.731e-01      -2.844e+00       2.725e-01          -0.036           0.156           0.987       2.366e-03          0.5976
  21       5.388e-01      -2.844e+00       2.709e-01          -0.078           0.156           0.985       2.163e-03          0.5603
  22       5.080e-01      -2.844e+00       2.682e-01          -0.124           0.155           0.980       1.837e-03          0.4888
  23       4.826e-01      -2.845e+00       2.648e-01          -0.182           0.154           0.971       1.407e-03          0.3310
  24       4.640e-01      -2.845e+00       2.611e-01          -0.263           0.151           0.953       8.954e-04         -0.1223
  25       4.533e-01      -2.846e+00       2.581e-01          -0.345           0.147           0.927       3.129e-04         -1.3488
Strip 3
  26       7.489e-01      -2.779e+00       2.464e-01           0.284           0.150           0.947       3.063e-04          0.4164
  27       7.424e-01      -2.779e+00       2.482e-01           0.248           0.152           0.957       8.918e-04          0.6276
  28       7.277e-01      -2.779e+00       2.516e-01           0.178           0.154           0.972       1.406e-03          0.6672
  29       7.055e-01      -2.778e+00       2.552e-01           0.132           0.155           0.979       1.839e-03          0.7037
  30       6.772e-01      -2.778e+00       2.586e-01           0.091           0.156           0.984       2.165e-03          0.7429
  31       6.444e-01      -2.777e+00       2.611e-01           0.043           0.156           0.987       2.366e-03          0.7315
  32       6.090e-01      -2.777e+00       2.623e-01          -0.000           0.156           0.988       2.435e-03          0.6969
  33       5.731e-01      -2.777e+00       2.619e-01          -0.036           0.156           0.987       2.366e-03          0.6783
  34       5.388e-01      -2.777e+00       2.604e-01          -0.078           0.156           0.985       2.163e-03          0.6386
  35       5.080e-01      -2.778e+00       2.577e-01          -0.124           0.155           0.980       1.837e-03          0.5678
  36       4.826e-01      -2.778e+00       2.542e-01          -0.182           0.154           0.971       1.407e-03          0.4208
  37       4.640e-01      -2.779e+00       2.506e-01          -0.263           0.151           0.953       8.954e-04          0.0052
  38       4.533e-01      -2.779e+00       2.476e-01          -0.345           0.147           0.927       3.129e-04         -1.0666
Strip 4
  39       7.489e-01      -2.713e+00       2.359e-01           0.284           0.150           0.947       3.063e-04          0.4257
  40       7.424e-01      -2.713e+00       2.377e-01           0.248           0.152           0.957       8.918e-04          0.6446
  41       7.277e-01      -2.712e+00       2.410e-01           0.178           0.154           0.972       1.406e-03          0.6931
  42       7.055e-01      -2.712e+00       2.447e-01           0.132           0.155           0.979       1.839e-03          0.7382
  43       6.772e-01      -2.711e+00       2.481e-01           0.091           0.156           0.984       2.165e-03          0.7847
  44       6.444e-01      -2.711e+00       2.506e-01           0.043           0.156           0.987       2.366e-03          0.7787
  45       6.090e-01      -2.711e+00       2.517e-01          -0.000           0.156           0.988       2.435e-03          0.7475
  46       5.731e-01      -2.711e+00       2.514e-01          -0.036           0.156           0.987       2.366e-03          0.7310
  47       5.388e-01      -2.711e+00       2.499e-01          -0.078           0.156           0.985       2.163e-03          0.6936
  48       5.080e-01      -2.711e+00       2.472e-01          -0.124           0.155           0.980       1.837e-03          0.6281
  49       4.826e-01      -2.712e+00       2.437e-01          -0.182           0.154           0.971       1.407e-03          0.4942
  50       4.640e-01      -2.712e+00       2.400e-01          -0.263           0.151           0.953       8.954e-04          0.1134
  51       4.533e-01      -2.713e+00       2.370e-01          -0.345           0.147           0.927       3.129e-04         -0.8240
Strip 5
  52       7.489e-01      -2.646e+00       2.254e-01           0.284           0.150           0.947       3.063e-04          0.4316
  53       7.424e-01      -2.646e+00       2.271e-01           0.248           0.152           0.957       8.918e-04          0.6554
  54       7.277e-01      -2.646e+00       2.305e-01           0.178           0.154           0.972       1.406e-03          0.7096
  55       7.055e-01      -2.645e+00       2.341e-01           0.132           0.155           0.979       1.839e-03          0.7602
  56       6.772e-01      -2.645e+00       2.375e-01           0.091           0.156           0.984       2.165e-03          0.8116
  57       6.444e-01      -2.644e+00       2.401e-01           0.043           0.156           0.987       2.366e-03          0.8099
  58       6.090e-01      -2.644e+00       2.412e-01          -0.000           0.156           0.988       2.435e-03          0.7820
  59       5.731e-01      -2.644e+00       2.409e-01          -0.036           0.156           0.987       2.366e-03          0.7685
  60       5.388e-01      -2.644e+00       2.393e-01          -0.078           0.156           0.985       2.163e-03          0.7347
  61       5.080e-01      -2.645e+00       2.366e-01          -0.124           0.155           0.980       1.837e-03          0.6752
  62       4.826e-01      -2.645e+00       2.332e-01          -0.182           0.154           0.971       1.407e-03          0.5533
  63       4.640e-01      -2.646e+00       2.295e-01          -0.263           0.151           0.953       8.954e-04          0.2024
  64       4.533e-01      -2.646e+00       2.265e-01          -0.345           0.147           0.927       3.129e-04         -0.6230
Strip 6
  65       7.489e-01      -2.580e+00       2.148e-01           0.284           0.150           0.947       3.063e-04          0.4357
  66       7.424e-01      -2.580e+00       2.166e-01           0.248           0.152           0.957       8.918e-04          0.6628
  67       7.277e-01      -2.579e+00       2.199e-01           0.178           0.154           0.972       1.406e-03          0.7210
  68       7.055e-01      -2.579e+00       2.236e-01           0.132           0.155           0.979       1.839e-03          0.7755
  69       6.772e-01      -2.578e+00       2.270e-01           0.091           0.156           0.984       2.165e-03          0.8306
  70       6.444e-01      -2.578e+00       2.295e-01           0.043           0.156           0.987       2.366e-03          0.8321
  71       6.090e-01      -2.578e+00       2.307e-01          -0.000           0.156           0.988       2.435e-03          0.8072
  72       5.731e-01      -2.578e+00       2.303e-01          -0.036           0.156           0.987       2.366e-03          0.7967
  73       5.388e-01      -2.578e+00       2.288e-01          -0.078           0.156           0.985       2.163e-03          0.7665
  74       5.080e-01      -2.578e+00       2.261e-01          -0.124           0.155           0.980       1.837e-03          0.7126
  75       4.826e-01      -2.579e+00       2.226e-01          -0.182           0.154           0.971       1.407e-03          0.6013
  76       4.640e-01      -2.579e+00       2.189e-01          -0.263           0.151           0.953       8.954e-04          0.2754
  77       4.533e-01      -2.580e+00       2.160e-01          -0.345           0.147           0.927       3.129e-04         -0.4574
Strip 7
  78       7.489e-01      -2.513e+00       2.043e-01           0.284           0.150           0.947       3.063e-04          0.4387
  79       7.424e-01      -2.513e+00       2.060e-01           0.248           0.152           0.957       8.918e-04          0.6683
  80       7.277e-01      -2.513e+00       2.094e-01           0.178           0.154           0.972       1.406e-03          0.7294
  81       7.055e-01      -2.512e+00       2.131e-01           0.132           0.155           0.979       1.839e-03          0.7867
  82       6.772e-01      -2.512e+00       2.165e-01           0.091           0.156           0.984       2.165e-03          0.8446
  83       6.444e-01      -2.511e+00       2.190e-01           0.043           0.156           0.987       2.366e-03          0.8488
  84       6.090e-01      -2.511e+00       2.201e-01          -0.000           0.156           0.988       2.435e-03          0.8265
  85       5.731e-01      -2.511e+00       2.198e-01          -0.036           0.156           0.987       2.366e-03          0.8186
  86       5.388e-01      -2.511e+00       2.182e-01          -0.078           0.156           0.985       2.163e-03          0.7917
  87       5.080e-01      -2.512e+00       2.156e-01          -0.124           0.155           0.980       1.837e-03          0.7428
  88       4.826e-01      -2.512e+00       2.121e-01          -0.182           0.154           0.971       1.407e-03          0.6405
  89       4.640e-01      -2.513e+00       2.084e-01          -0.263           0.151           0.953       8.954e-04          0.3356
  90       4.533e-01      -2.513e+00       2.054e-01          -0.345           0.147           0.927       3.129e-04         -0.3202
Strip 8
  91       7.489e-01      -2.447e+00       1.937e-01           0.284           0.150           0.947       3.063e-04          0.4410
  92       7.424e-01      -2.446e+00       1.955e-01           0.248           0.152           0.957       8.918e-04          0.6725
  93       7.277e-01      -2.446e+00       1.989e-01           0.178           0.154           0.972       1.406e-03          0.7358
  94       7.055e-01      -2.446e+00       2.025e-01           0.132           0.155           0.979       1.839e-03          0.7954
  95       6.772e-01      -2.445e+00       2.059e-01           0.091           0.156           0.984       2.165e-03          0.8555
  96       6.444e-01      -2.445e+00       2.085e-01           0.043           0.156           0.987       2.366e-03          0.8619
  97       6.090e-01      -2.445e+00       2.096e-01          -0.000           0.156           0.988       2.435e-03          0.8416
  98       5.731e-01      -2.445e+00       2.093e-01          -0.036           0.156           0.987       2.366e-03          0.8361
  99       5.388e-01      -2.445e+00       2.077e-01          -0.078           0.156           0.985       2.163e-03          0.8122
 100       5.080e-01      -2.445e+00       2.050e-01          -0.124           0.155           0.980       1.837e-03          0.7675
 101       4.826e-01      -2.446e+00       2.016e-01          -0.182           0.154           0.971       1.407e-03          0.6730
 102       4.640e-01      -2.446e+00       1.979e-01          -0.263           0.151           0.953       8.954e-04          0.3858
 103       4.533e-01      -2.447e+00       1.949e-01          -0.345           0.147           0.927       3.129e-04         -0.2056
Strip 9
 104       7.489e-01      -2.380e+00       1.832e-01           0.284           0.150           0.947       3.063e-04          0.4429
 105       7.424e-01      -2.380e+00       1.850e-01           0.248           0.152           0.957       8.918e-04          0.6758
 106       7.277e-01      -2.379e+00       1.883e-01           0.178           0.154           0.972       1.406e-03          0.7409
 107       7.055e-01      -2.379e+00       1.920e-01           0.132           0.155           0.979       1.839e-03          0.8022
 108       6.772e-01      -2.379e+00       1.954e-01           0.091           0.156           0.984       2.165e-03          0.8641
 109       6.444e-01      -2.378e+00       1.979e-01           0.043           0.156           0.987       2.366e-03          0.8723
 110       6.090e-01      -2.378e+00       1.991e-01          -0.000           0.156           0.988       2.435e-03          0.8539
 111       5.731e-01      -2.378e+00       1.987e-01          -0.036           0.156           0.987       2.366e-03          0.8503
 112       5.388e-01      -2.378e+00       1.972e-01          -0.078           0.156           0.985       2.163e-03          0.8290
 113       5.080e-01      -2.379e+00       1.945e-01          -0.124           0.155           0.980       1.837e-03          0.7881
 114       4.826e-01      -2.379e+00       1.910e-01          -0.182           0.154           0.971       1.407e-03          0.7002
 115       4.640e-01      -2.380e+00       1.873e-01          -0.263           0.151           0.953       8.954e-04          0.4280
 116       4.533e-01      -2.380e+00       1.843e-01          -0.345           0.147           0.927       3.129e-04         -0.1090
Strip 10
 117       7.489e-01      -2.314e+00       1.726e-01           0.284           0.150           0.947       3.063e-04          0.4443
 118       7.424e-01      -2.313e+00       1.744e-01           0.248           0.152           0.957       8.918e-04          0.6785
 119       7.277e-01      -2.313e+00       1.778e-01           0.178           0.154           0.972       1.406e-03          0.7450
 120       7.055e-01      -2.312e+00       1.814e-01           0.132           0.155           0.979       1.839e-03          0.8078
 121       6.772e-01      -2.312e+00       1.849e-01           0.091           0.156           0.984       2.165e-03          0.8712
 122       6.444e-01      -2.312e+00       1.874e-01           0.043           0.156           0.987       2.366e-03          0.8808
 123       6.090e-01      -2.312e+00       1.885e-01          -0.000           0.156           0.988       2.435e-03          0.8640
 124       5.731e-01      -2.312e+00       1.882e-01          -0.036           0.156           0.987       2.366e-03          0.8622
 125       5.388e-01      -2.312e+00       1.866e-01          -0.078           0.156           0.985       2.163e-03          0.8430
 126       5.080e-01      -2.312e+00       1.839e-01          -0.124           0.155           0.980       1.837e-03          0.8054
 127       4.826e-01      -2.313e+00       1.805e-01          -0.182           0.154           0.971       1.407e-03          0.7232
 128       4.640e-01      -2.313e+00       1.768e-01          -0.263           0.151           0.953       8.954e-04          0.4638
 129       4.533e-01      -2.313e+00       1.738e-01          -0.345           0.147           0.927       3.129e-04         -0.0269
Strip 11
 130       7.489e-01      -2.247e+00       1.621e-01           0.284           0.150           0.947       3.063e-04          0.4456
 131       7.424e-01      -2.247e+00       1.639e-01           0.248           0.152           0.957       8.918e-04          0.6807
 132       7.277e-01      -2.246e+00       1.672e-01           0.178           0.154           0.972       1.406e-03          0.7484
 133       7.055e-01      -2.246e+00       1.709e-01           0.132           0.155           0.979       1.839e-03          0.8124
 134       6.772e-01      -2.245e+00       1.743e-01           0.091           0.156           0.984       2.165e-03          0.8770
 135       6.444e-01      -2.245e+00       1.769e-01           0.043           0.156           0.987       2.366e-03          0.8879
 136       6.090e-01      -2.245e+00       1.780e-01          -0.000           0.156           0.988       2.435e-03          0.8724
 137       5.731e-01      -2.245e+00       1.777e-01          -0.036           0.156           0.987       2.366e-03          0.8721
 138       5.388e-01      -2.245e+00       1.761e-01          -0.078           0.156           0.985       2.163e-03          0.8549
 139       5.080e-01      -2.246e+00       1.734e-01          -0.124           0.155           0.980       1.837e-03          0.8201
 140       4.826e-01      -2.246e+00       1.699e-01          -0.182           0.154           0.971       1.407e-03          0.7428
 141       4.640e-01      -2.246e+00       1.662e-01          -0.263           0.151           0.953       8.954e-04          0.4945
 142       4.533e-01      -2.247e+00       1.633e-01          -0.345           0.147           0.927       3.129e-04          0.0434
Strip 12
 143       7.489e-01      -2.180e+00       1.516e-01           0.284           0.150           0.947       3.063e-04          0.4466
 144       7.424e-01      -2.180e+00       1.533e-01           0.248           0.152           0.957       8.918e-04          0.6826
 145       7.277e-01      -2.180e+00       1.567e-01           0.178           0.154           0.972       1.406e-03          0.7513
 146       7.055e-01      -2.179e+00       1.604e-01           0.132           0.155           0.979       1.839e-03          0.8163
 147       6.772e-01      -2.179e+00       1.638e-01           0.091           0.156           0.984       2.165e-03          0.8819
 148       6.444e-01      -2.179e+00       1.663e-01           0.043           0.156           0.987       2.366e-03          0.8939
 149       6.090e-01      -2.179e+00       1.675e-01          -0.000           0.156           0.988       2.435e-03          0.8795
 150       5.731e-01      -2.179e+00       1.671e-01          -0.036           0.156           0.987       2.366e-03          0.8805
 151       5.388e-01      -2.179e+00       1.656e-01          -0.078           0.156           0.985       2.163e-03          0.8650
 152       5.080e-01      -2.179e+00       1.629e-01          -0.124           0.155           0.980       1.837e-03          0.8327
 153       4.826e-01      -2.179e+00       1.594e-01          -0.182           0.154           0.971       1.407e-03          0.7597
 154       4.640e-01      -2.180e+00       1.557e-01          -0.263           0.151           0.953       8.954e-04          0.5209
 155       4.533e-01      -2.180e+00       1.527e-01          -0.345           0.147           0.927       3.129e-04          0.1041
Strip 13
 156       7.489e-01      -2.114e+00       1.410e-01           0.284           0.150           0.947       3.063e-04          0.4475
 157       7.424e-01      -2.114e+00       1.428e-01           0.248           0.152           0.957       8.918e-04          0.6842
 158       7.277e-01      -2.113e+00       1.462e-01           0.178           0.154           0.972       1.406e-03          0.7537
 159       7.055e-01      -2.113e+00       1.498e-01           0.132           0.155           0.979       1.839e-03          0.8196
 160       6.772e-01      -2.112e+00       1.532e-01           0.091           0.156           0.984       2.165e-03          0.8861
 161       6.444e-01      -2.112e+00       1.558e-01           0.043           0.156           0.987       2.366e-03          0.8990
 162       6.090e-01      -2.112e+00       1.569e-01          -0.000           0.156           0.988       2.435e-03          0.8856
 163       5.731e-01      -2.112e+00       1.566e-01          -0.036           0.156           0.987       2.366e-03          0.8878
 164       5.388e-01      -2.112e+00       1.550e-01          -0.078           0.156           0.985       2.163e-03          0.8737
 165       5.080e-01      -2.113e+00       1.523e-01          -0.124           0.155           0.980       1.837e-03          0.8436
 166       4.826e-01      -2.113e+00       1.489e-01          -0.182           0.154           0.971       1.407e-03          0.7744
 167       4.640e-01      -2.113e+00       1.452e-01          -0.263           0.151           0.953       8.954e-04          0.5439
 168       4.533e-01      -2.114e+00       1.422e-01          -0.345           0.147           0.927       3.129e-04          0.1568
Strip 14
 169       7.489e-01      -2.047e+00       1.305e-01           0.284           0.150           0.947       3.063e-04          0.4482
 170       7.424e-01      -2.047e+00       1.323e-01           0.248           0.152           0.957       8.918e-04          0.6856
 171       7.277e-01      -2.047e+00       1.356e-01           0.178           0.154           0.972       1.406e-03          0.7559
 172       7.055e-01      -2.046e+00       1.393e-01           0.132           0.155           0.979       1.839e-03          0.8225
 173       6.772e-01      -2.046e+00       1.427e-01           0.091           0.156           0.984       2.165e-03          0.8897
 174       6.444e-01      -2.046e+00       1.453e-01           0.043           0.156           0.987       2.366e-03          0.9034
 175       6.090e-01      -2.046e+00       1.464e-01          -0.000           0.156           0.988       2.435e-03          0.8909
 176       5.731e-01      -2.046e+00       1.461e-01          -0.036           0.156           0.987       2.366e-03          0.8941
 177       5.388e-01      -2.046e+00       1.445e-01          -0.078           0.156           0.985       2.163e-03          0.8813
 178       5.080e-01      -2.046e+00       1.418e-01          -0.124           0.155           0.980       1.837e-03          0.8531
 179       4.826e-01      -2.046e+00       1.383e-01          -0.182           0.154           0.971       1.407e-03          0.7871
 180       4.640e-01      -2.047e+00       1.346e-01          -0.263           0.151           0.953       8.954e-04          0.5640
 181       4.533e-01      -2.047e+00       1.316e-01          -0.345           0.147           0.927       3.129e-04          0.2030
Strip 15
 182       7.489e-01      -1.981e+00       1.199e-01           0.284           0.150           0.947       3.063e-04          0.4489
 183       7.424e-01      -1.981e+00       1.217e-01           0.248           0.152           0.957       8.918e-04          0.6868
 184       7.277e-01      -1.980e+00       1.251e-01           0.178           0.154           0.972       1.406e-03          0.7577
 185       7.055e-01      -1.980e+00       1.288e-01           0.132           0.155           0.979       1.839e-03          0.8250
 186       6.772e-01      -1.979e+00       1.322e-01           0.091           0.156           0.984       2.165e-03          0.8929
 187       6.444e-01      -1.979e+00       1.347e-01           0.043           0.156           0.987       2.366e-03          0.9073
 188       6.090e-01      -1.979e+00       1.359e-01          -0.000           0.156           0.988       2.435e-03          0.8955
 189       5.731e-01      -1.979e+00       1.355e-01          -0.036           0.156           0.987       2.366e-03          0.8996
 190       5.388e-01      -1.979e+00       1.340e-01          -0.078           0.156           0.985       2.163e-03          0.8880
 191       5.080e-01      -1.980e+00       1.313e-01          -0.124           0.155           0.980       1.837e-03          0.8614
 192       4.826e-01      -1.980e+00       1.278e-01          -0.182           0.154           0.971       1.407e-03          0.7984
 193       4.640e-01      -1.980e+00       1.241e-01          -0.263           0.151           0.953       8.954e-04          0.5816
 194       4.533e-01      -1.981e+00       1.211e-01          -0.345           0.147           0.927       3.129e-04          0.2435
Strip 16
 195       7.489e-01      -1.914e+00       1.094e-01           0.284           0.150           0.947       3.063e-04          0.4495
 196       7.424e-01      -1.914e+00       1.112e-01           0.248           0.152           0.957       8.918e-04          0.6879
 197       7.277e-01      -1.914e+00       1.145e-01           0.178           0.154           0.972       1.406e-03          0.7594
 198       7.055e-01      -1.913e+00       1.182e-01           0.132           0.155           0.979       1.839e-03          0.8272
 199       6.772e-01      -1.913e+00       1.216e-01           0.091           0.156           0.984       2.165e-03          0.8957
 200       6.444e-01      -1.913e+00       1.242e-01           0.043           0.156           0.987       2.366e-03          0.9107
 201       6.090e-01      -1.913e+00       1.253e-01          -0.000           0.156           0.988       2.435e-03          0.8996
 202       5.731e-01      -1.913e+00       1.250e-01          -0.036           0.156           0.987       2.366e-03          0.9045
 203       5.388e-01      -1.913e+00       1.234e-01          -0.078           0.156           0.985       2.163e-03          0.8939
 204       5.080e-01      -1.913e+00       1.207e-01          -0.124           0.155           0.980       1.837e-03          0.8688
 205       4.826e-01      -1.913e+00       1.173e-01          -0.182           0.154           0.971       1.407e-03          0.8083
 206       4.640e-01      -1.914e+00       1.135e-01          -0.263           0.151           0.953       8.954e-04          0.5972
 207       4.533e-01      -1.914e+00       1.105e-01          -0.345           0.147           0.927       3.129e-04          0.2792
Strip 17
 208       7.489e-01      -1.848e+00       9.885e-02           0.284           0.150           0.947       3.063e-04          0.4501
 209       7.424e-01      -1.847e+00       1.006e-01           0.248           0.152           0.957       8.918e-04          0.6889
 210       7.277e-01      -1.847e+00       1.040e-01           0.178           0.154           0.972       1.406e-03          0.7608
 211       7.055e-01      -1.847e+00       1.077e-01           0.132           0.155           0.979       1.839e-03          0.8292
 212       6.772e-01      -1.846e+00       1.111e-01           0.091           0.156           0.984       2.165e-03          0.8982
 213       6.444e-01      -1.846e+00       1.137e-01           0.043           0.156           0.987       2.366e-03          0.9138
 214       6.090e-01      -1.846e+00       1.148e-01          -0.000           0.156           0.988       2.435e-03          0.9033
 215       5.731e-01      -1.846e+00       1.145e-01          -0.036           0.156           0.987       2.366e-03          0.9088
 216       5.388e-01      -1.846e+00       1.129e-01          -0.078           0.156           0.985       2.163e-03          0.8991
 217       5.080e-01      -1.846e+00       1.102e-01          -0.124           0.155           0.980       1.837e-03          0.8753
 218       4.826e-01      -1.847e+00       1.067e-01          -0.182           0.154           0.971       1.407e-03          0.8171
 219       4.640e-01      -1.847e+00       1.030e-01          -0.263           0.151           0.953       8.954e-04          0.6110
 220       4.533e-01      -1.848e+00       1.000e-01          -0.345           0.147           0.927       3.129e-04          0.3109
Strip 18
 221       7.489e-01      -1.781e+00       8.831e-02           0.284           0.150           0.947       3.063e-04          0.4506
 222       7.424e-01      -1.781e+00       9.009e-02           0.248           0.152           0.957       8.918e-04          0.6898
 223       7.277e-01      -1.781e+00       9.347e-02           0.178           0.154           0.972       1.406e-03          0.7622
 224       7.055e-01      -1.780e+00       9.714e-02           0.132           0.155           0.979       1.839e-03          0.8310
 225       6.772e-01      -1.780e+00       1.006e-01           0.091           0.156           0.984       2.165e-03          0.9005
 226       6.444e-01      -1.780e+00       1.031e-01           0.043           0.156           0.987       2.366e-03          0.9166
 227       6.090e-01      -1.780e+00       1.043e-01          -0.000           0.156           0.988       2.435e-03          0.9066
 228       5.731e-01      -1.780e+00       1.039e-01          -0.036           0.156           0.987       2.366e-03          0.9128
 229       5.388e-01      -1.780e+00       1.024e-01          -0.078           0.156           0.985       2.163e-03          0.9038
 230       5.080e-01      -1.780e+00       9.965e-02          -0.124           0.155           0.980       1.837e-03          0.8812
 231       4.826e-01      -1.780e+00       9.618e-02          -0.182           0.154           0.971       1.407e-03          0.8250
 232       4.640e-01      -1.781e+00       9.247e-02          -0.263           0.151           0.953       8.954e-04          0.6233
 233       4.533e-01      -1.781e+00       8.946e-02          -0.345           0.147           0.927       3.129e-04          0.3388
Strip 19
 234       7.489e-01      -1.714e+00       7.776e-02           0.284           0.150           0.947       3.063e-04          0.4511
 235       7.424e-01      -1.714e+00       7.955e-02           0.248           0.152           0.957       8.918e-04          0.6907
 236       7.277e-01      -1.714e+00       8.293e-02           0.178           0.154           0.972       1.406e-03          0.7635
 237       7.055e-01      -1.714e+00       8.660e-02           0.132           0.155           0.979       1.839e-03          0.8327
 238       6.772e-01      -1.713e+00       9.003e-02           0.091           0.156           0.984       2.165e-03          0.9027
 239       6.444e-01      -1.713e+00       9.260e-02           0.043           0.156           0.987       2.366e-03          0.9192
 240       6.090e-01      -1.713e+00       9.372e-02          -0.000           0.156           0.988       2.435e-03          0.9096
 241       5.731e-01      -1.713e+00       9.340e-02          -0.036           0.156           0.987       2.366e-03          0.9164
 242       5.388e-01      -1.713e+00       9.183e-02          -0.078           0.156           0.985       2.163e-03          0.9081
 243       5.080e-01      -1.713e+00       8.912e-02          -0.124           0.155           0.980       1.837e-03          0.8865
 244       4.826e-01      -1.714e+00       8.564e-02          -0.182           0.154           0.971       1.407e-03          0.8320
 245       4.640e-01      -1.714e+00       8.193e-02          -0.263           0.151           0.953       8.954e-04          0.6341
 246       4.533e-01      -1.714e+00       7.892e-02          -0.345           0.147           0.927       3.129e-04          0.3635
Strip 20
 247       7.489e-01      -1.648e+00       6.722e-02           0.284           0.150           0.947       3.063e-04          0.4517
 248       7.424e-01      -1.648e+00       6.901e-02           0.248           0.152           0.957       8.918e-04          0.6917
 249       7.277e-01      -1.647e+00       7.239e-02           0.178           0.154           0.972       1.406e-03          0.7648
 250       7.055e-01      -1.647e+00       7.607e-02           0.132           0.155           0.979       1.839e-03          0.8344
 251       6.772e-01      -1.647e+00       7.950e-02           0.091           0.156           0.984       2.165e-03          0.9048
 252       6.444e-01      -1.647e+00       8.206e-02           0.043           0.156           0.987       2.366e-03          0.9217
 253       6.090e-01      -1.646e+00       8.319e-02          -0.000           0.156           0.988       2.435e-03          0.9126
 254       5.731e-01      -1.647e+00       8.287e-02          -0.036           0.156           0.987       2.366e-03          0.9197
 255       5.388e-01      -1.647e+00       8.130e-02          -0.078           0.156           0.985       2.163e-03          0.9120
 256       5.080e-01      -1.647e+00       7.858e-02          -0.124           0.155           0.980       1.837e-03          0.8913
 257       4.826e-01      -1.647e+00       7.510e-02          -0.182           0.154           0.971       1.407e-03          0.8383
 258       4.640e-01      -1.648e+00       7.139e-02          -0.263           0.151           0.953       8.954e-04          0.6437
 259       4.533e-01      -1.648e+00       6.838e-02          -0.345           0.147           0.927       3.129e-04          0.3851
Strip 21
 260       7.489e-01      -1.581e+00       5.668e-02           0.284           0.150           0.947       3.063e-04          0.4522
 261       7.424e-01      -1.581e+00       5.847e-02           0.248           0.152           0.957       8.918e-04          0.6926
 262       7.277e-01      -1.581e+00       6.185e-02           0.178           0.154           0.972       1.406e-03          0.7662
 263       7.055e-01      -1.581e+00       6.553e-02           0.132           0.155           0.979       1.839e-03          0.8362
 264       6.772e-01      -1.580e+00       6.896e-02           0.091           0.156           0.984       2.165e-03          0.9070
 265       6.444e-01      -1.580e+00       7.153e-02           0.043           0.156           0.987       2.366e-03          0.9243
 266       6.090e-01      -1.580e+00       7.266e-02          -0.000           0.156           0.988       2.435e-03          0.9155
 267       5.731e-01      -1.580e+00       7.234e-02          -0.036           0.156           0.987       2.366e-03          0.9230
 268       5.388e-01      -1.580e+00       7.076e-02          -0.078           0.156           0.985       2.163e-03          0.9157
 269       5.080e-01      -1.580e+00       6.805e-02          -0.124           0.155           0.980       1.837e-03          0.8956
 270       4.826e-01      -1.581e+00       6.456e-02          -0.182           0.154           0.971       1.407e-03          0.8438
 271       4.640e-01      -1.581e+00       6.085e-02          -0.263           0.151           0.953       8.954e-04          0.6519
 272       4.533e-01      -1.581e+00       5.784e-02          -0.345           0.147           0.927       3.129e-04          0.4032
Strip 22
 273       7.489e-01      -1.515e+00       4.614e-02           0.284           0.150           0.947       3.063e-04          0.4528
 274       7.424e-01      -1.515e+00       4.792e-02           0.248           0.152           0.957       8.918e-04          0.6936
 275       7.277e-01      -1.514e+00       5.131e-02           0.178           0.154           0.972       1.406e-03          0.7676
 276       7.055e-01      -1.514e+00       5.499e-02           0.132           0.155           0.979       1.839e-03          0.8381
 277       6.772e-01      -1.514e+00       5.843e-02           0.091           0.156           0.984       2.165e-03          0.9095
 278       6.444e-01      -1.514e+00       6.100e-02           0.043           0.156           0.987       2.366e-03          0.9271
 279       6.090e-01      -1.513e+00       6.212e-02          -0.000           0.156           0.988       2.435e-03          0.9186
 280       5.731e-01      -1.514e+00       6.180e-02          -0.036           0.156           0.987       2.366e-03          0.9264
 281       5.388e-01      -1.514e+00       6.023e-02          -0.078           0.156           0.985       2.163e-03          0.9193
 282       5.080e-01      -1.514e+00       5.751e-02          -0.124           0.155           0.980       1.837e-03          0.8995
 283       4.826e-01      -1.514e+00       5.402e-02          -0.182           0.154           0.971       1.407e-03          0.8484
 284       4.640e-01      -1.514e+00       5.031e-02          -0.263           0.151           0.953       8.954e-04          0.6583
 285       4.533e-01      -1.515e+00       4.730e-02          -0.345           0.147           0.927       3.129e-04          0.4170
Strip 23
 286       7.489e-01      -1.448e+00       3.560e-02           0.284           0.150           0.947       3.063e-04          0.4532
 287       7.424e-01      -1.448e+00       3.738e-02           0.248           0.152           0.957       8.918e-04          0.6945
 288       7.277e-01      -1.448e+00       4.077e-02           0.178           0.154           0.972       1.406e-03          0.7691
 289       7.055e-01      -1.448e+00       4.445e-02           0.132           0.155           0.979       1.839e-03          0.8403
 290       6.772e-01      -1.447e+00       4.789e-02           0.091           0.156           0.984       2.165e-03          0.9125
 291       6.444e-01      -1.447e+00       5.046e-02           0.043           0.156           0.987       2.366e-03          0.9306
 292       6.090e-01      -1.447e+00       5.159e-02          -0.000           0.156           0.988       2.435e-03          0.9224
 293       5.731e-01      -1.447e+00       5.127e-02          -0.036           0.156           0.987       2.366e-03          0.9304
 294       5.388e-01      -1.447e+00       4.969e-02          -0.078           0.156           0.985       2.163e-03          0.9235
 295       5.080e-01      -1.447e+00       4.697e-02          -0.124           0.155           0.980       1.837e-03          0.9035
 296       4.826e-01      -1.448e+00       4.349e-02          -0.182           0.154           0.971       1.407e-03          0.8520
 297       4.640e-01      -1.448e+00       3.977e-02          -0.263           0.151           0.953       8.954e-04          0.6617
 298       4.533e-01      -1.448e+00       3.675e-02          -0.345           0.147           0.927       3.129e-04          0.4224
Strip 24
 299       7.489e-01      -1.384e+00       3.032e-02           0.284          -0.000           0.959       2.797e-04          0.4532
 300       7.424e-01      -1.384e+00       3.211e-02           0.248          -0.000           0.969       8.141e-04          0.6947
 301       7.277e-01      -1.384e+00       3.550e-02           0.178          -0.000           0.984       1.284e-03          0.7696
 302       7.055e-01      -1.384e+00       3.918e-02           0.132          -0.000           0.991       1.679e-03          0.8411
 303       6.772e-01      -1.383e+00       4.262e-02           0.091          -0.000           0.996       1.977e-03          0.9135
 304       6.444e-01      -1.383e+00       4.519e-02           0.043           0.000           0.999       2.160e-03          0.9320
 305       6.090e-01      -1.383e+00       4.632e-02          -0.000           0.000           1.000       2.223e-03          0.9242
 306       5.731e-01      -1.383e+00       4.600e-02          -0.036           0.000           0.999       2.160e-03          0.9326
 307       5.388e-01      -1.383e+00       4.443e-02          -0.078          -0.000           0.997       1.974e-03          0.9262
 308       5.080e-01      -1.383e+00       4.171e-02          -0.124           0.000           0.992       1.677e-03          0.9071
 309       4.826e-01      -1.384e+00       3.822e-02          -0.182           0.000           0.983       1.285e-03          0.8571
 310       4.640e-01      -1.384e+00       3.450e-02          -0.263           0.000           0.965       8.174e-04          0.6701
 311       4.533e-01      -1.384e+00       3.148e-02          -0.345          -0.000           0.939       2.856e-04          0.4421
Strip 25
 312       7.489e-01      -1.323e+00       3.032e-02           0.284           0.000           0.959       2.797e-04          0.4532
 313       7.424e-01      -1.323e+00       3.211e-02           0.248           0.000           0.969       8.141e-04          0.6946
 314       7.277e-01      -1.322e+00       3.550e-02           0.178           0.000           0.984       1.284e-03          0.7693
 315       7.055e-01      -1.322e+00       3.918e-02           0.132           0.000           0.991       1.679e-03          0.8406
 316       6.772e-01      -1.322e+00       4.262e-02           0.091          -0.000           0.996       1.977e-03          0.9127
 317       6.444e-01      -1.322e+00       4.519e-02           0.043          -0.000           0.999       2.160e-03          0.9313
 318       6.090e-01      -1.322e+00       4.632e-02          -0.000          -0.000           1.000       2.223e-03          0.9237
 319       5.731e-01      -1.322e+00       4.600e-02          -0.036          -0.000           0.999       2.160e-03          0.9327
 320       5.388e-01      -1.322e+00       4.443e-02          -0.078           0.000           0.997       1.974e-03          0.9272
 321       5.080e-01      -1.322e+00       4.171e-02          -0.124           0.000           0.992       1.677e-03          0.9096
 322       4.826e-01      -1.322e+00       3.822e-02          -0.182          -0.000           0.983       1.285e-03          0.8624
 323       4.640e-01      -1.322e+00       3.450e-02          -0.263          -0.000           0.965       8.174e-04          0.6807
 324       4.533e-01      -1.323e+00       3.148e-02          -0.345           0.000           0.939       2.856e-04          0.4688
Strip 26
 325       7.489e-01      -1.261e+00       3.032e-02           0.284           0.000           0.959       2.797e-04          0.4531
 326       7.424e-01      -1.261e+00       3.211e-02           0.248           0.000           0.969       8.141e-04          0.6944
 327       7.277e-01      -1.261e+00       3.550e-02           0.178           0.000           0.984       1.284e-03          0.7691
 328       7.055e-01      -1.261e+00       3.918e-02           0.132           0.000           0.991       1.679e-03          0.8403
 329       6.772e-01      -1.260e+00       4.262e-02           0.091           0.000           0.996       1.977e-03          0.9125
 330       6.444e-01      -1.260e+00       4.519e-02           0.043           0.000           0.999       2.160e-03          0.9311
 331       6.090e-01      -1.260e+00       4.632e-02          -0.000           0.000           1.000       2.223e-03          0.9239
 332       5.731e-01      -1.260e+00       4.600e-02          -0.036           0.000           0.999       2.160e-03          0.9333
 333       5.388e-01      -1.260e+00       4.443e-02          -0.078           0.000           0.997       1.974e-03          0.9285
 334       5.080e-01      -1.260e+00       4.171e-02          -0.124           0.000           0.992       1.677e-03          0.9120
 335       4.826e-01      -1.261e+00       3.822e-02          -0.182           0.000           0.983       1.285e-03          0.8665
 336       4.640e-01      -1.261e+00       3.450e-02          -0.263           0.000           0.965       8.174e-04          0.6881
 337       4.533e-01      -1.261e+00       3.148e-02          -0.345           0.000           0.939       2.856e-04          0.4870
Strip 27
 338       7.489e-01      -1.200e+00       3.032e-02           0.284           0.000           0.959       2.797e-04          0.4530
 339       7.424e-01      -1.200e+00       3.211e-02           0.248           0.000           0.969       8.141e-04          0.6942
 340       7.277e-01      -1.199e+00       3.550e-02           0.178           0.000           0.984       1.284e-03          0.7690
 341       7.055e-01      -1.199e+00       3.918e-02           0.132           0.000           0.991       1.679e-03          0.8403
 342       6.772e-01      -1.199e+00       4.262e-02           0.091          -0.000           0.996       1.977e-03          0.9125
 343       6.444e-01      -1.199e+00       4.519e-02           0.043          -0.000           0.999       2.160e-03          0.9313
 344       6.090e-01      -1.199e+00       4.632e-02          -0.000           0.000           1.000       2.223e-03          0.9243
 345       5.731e-01      -1.199e+00       4.600e-02          -0.036          -0.000           0.999       2.160e-03          0.9341
 346       5.388e-01      -1.199e+00       4.443e-02          -0.078          -0.000           0.997       1.974e-03          0.9298
 347       5.080e-01      -1.199e+00       4.171e-02          -0.124           0.000           0.992       1.677e-03          0.9141
 348       4.826e-01      -1.199e+00       3.822e-02          -0.182          -0.000           0.983       1.285e-03          0.8698
 349       4.640e-01      -1.199e+00       3.450e-02          -0.263          -0.000           0.965       8.174e-04          0.6939
 350       4.533e-01      -1.200e+00       3.148e-02          -0.345           0.000           0.939       2.856e-04          0.5012
Strip 28
 351       7.489e-01      -1.138e+00       3.032e-02           0.284          -0.000           0.959       2.797e-04          0.4530
 352       7.424e-01      -1.138e+00       3.211e-02           0.248          -0.000           0.969       8.141e-04          0.6942
 353       7.277e-01      -1.138e+00       3.550e-02           0.178           0.000           0.984       1.284e-03          0.7690
 354       7.055e-01      -1.138e+00       3.918e-02           0.132           0.000           0.991       1.679e-03          0.8403
 355       6.772e-01      -1.137e+00       4.262e-02           0.091           0.000           0.996       1.977e-03          0.9126
 356       6.444e-01      -1.137e+00       4.519e-02           0.043           0.000           0.999       2.160e-03          0.9316
 357       6.090e-01      -1.137e+00       4.632e-02          -0.000           0.000           1.000       2.223e-03          0.9249
 358       5.731e-01      -1.137e+00       4.600e-02          -0.036           0.000           0.999       2.160e-03          0.9350
 359       5.388e-01      -1.137e+00       4.443e-02          -0.078          -0.000           0.997       1.974e-03          0.9311
 360       5.080e-01      -1.137e+00       4.171e-02          -0.124          -0.000           0.992       1.677e-03          0.9160
 361       4.826e-01      -1.138e+00       3.822e-02          -0.182           0.000           0.983       1.285e-03          0.8726
 362       4.640e-01      -1.138e+00       3.450e-02          -0.263           0.000           0.965       8.174e-04          0.6988
 363       4.533e-01      -1.138e+00       3.148e-02          -0.345          -0.000           0.939       2.856e-04          0.5131
Strip 29
 364       7.489e-01      -1.077e+00       3.032e-02           0.284           0.000           0.959       2.797e-04          0.4529
 365       7.424e-01      -1.077e+00       3.211e-02           0.248           0.000           0.969       8.141e-04          0.6941
 366       7.277e-01      -1.076e+00       3.550e-02           0.178           0.000           0.984       1.284e-03          0.7690
 367       7.055e-01      -1.076e+00       3.918e-02           0.132           0.000           0.991       1.679e-03          0.8405
 368       6.772e-01      -1.076e+00       4.262e-02           0.091           0.000           0.996       1.977e-03          0.9129
 369       6.444e-01      -1.076e+00       4.519e-02           0.043           0.000           0.999       2.160e-03          0.9320
 370       6.090e-01      -1.076e+00       4.632e-02          -0.000           0.000           1.000       2.223e-03          0.9254
 371       5.731e-01      -1.076e+00       4.600e-02          -0.036           0.000           0.999       2.160e-03          0.9358
 372       5.388e-01      -1.076e+00       4.443e-02          -0.078           0.000           0.997       1.974e-03          0.9323
 373       5.080e-01      -1.076e+00       4.171e-02          -0.124           0.000           0.992       1.677e-03          0.9177
 374       4.826e-01      -1.076e+00       3.822e-02          -0.182          -0.000           0.983       1.285e-03          0.8751
 375       4.640e-01      -1.076e+00       3.450e-02          -0.263           0.000           0.965       8.174e-04          0.7031
 376       4.533e-01      -1.077e+00       3.148e-02          -0.345          -0.000           0.939       2.856e-04          0.5234
Strip 30
 377       7.489e-01      -1.015e+00       3.032e-02           0.284          -0.000           0.959       2.797e-04          0.4529
 378       7.424e-01      -1.015e+00       3.211e-02           0.248          -0.000           0.969       8.141e-04          0.6941
 379       7.277e-01      -1.015e+00       3.550e-02           0.178          -0.000           0.984       1.284e-03          0.7691
 380       7.055e-01      -1.015e+00       3.918e-02           0.132           0.000           0.991       1.679e-03          0.8407
 381       6.772e-01      -1.014e+00       4.262e-02           0.091          -0.000           0.996       1.977e-03          0.9131
 382       6.444e-01      -1.014e+00       4.519e-02           0.043          -0.000           0.999       2.160e-03          0.9324
 383       6.090e-01      -1.014e+00       4.632e-02          -0.000          -0.000           1.000       2.223e-03          0.9260
 384       5.731e-01      -1.014e+00       4.600e-02          -0.036          -0.000           0.999       2.160e-03          0.9366
 385       5.388e-01      -1.014e+00       4.443e-02          -0.078          -0.000           0.997       1.974e-03          0.9334
 386       5.080e-01      -1.014e+00       4.171e-02          -0.124           0.000           0.992       1.677e-03          0.9192
 387       4.826e-01      -1.015e+00       3.822e-02          -0.182           0.000           0.983       1.285e-03          0.8773
 388       4.640e-01      -1.015e+00       3.450e-02          -0.263          -0.000           0.965       8.174e-04          0.7069
 389       4.533e-01      -1.015e+00       3.148e-02          -0.345          -0.000           0.939       2.856e-04          0.5325
Strip 31
 390       7.489e-01      -9.536e-01       3.032e-02           0.284          -0.000           0.959       2.797e-04          0.4529
 391       7.424e-01      -9.535e-01       3.211e-02           0.248           0.000           0.969       8.141e-04          0.6942
 392       7.277e-01      -9.533e-01       3.550e-02           0.178           0.000           0.984       1.284e-03          0.7692
 393       7.055e-01      -9.531e-01       3.918e-02           0.132           0.000           0.991       1.679e-03          0.8408
 394       6.772e-01      -9.529e-01       4.262e-02           0.091           0.000           0.996       1.977e-03          0.9134
 395       6.444e-01      -9.528e-01       4.519e-02           0.043           0.000           0.999       2.160e-03          0.9328
 396       6.090e-01      -9.527e-01       4.632e-02          -0.000           0.000           1.000       2.223e-03          0.9266
 397       5.731e-01      -9.527e-01       4.600e-02          -0.036           0.000           0.999       2.160e-03          0.9373
 398       5.388e-01      -9.528e-01       4.443e-02          -0.078           0.000           0.997       1.974e-03          0.9344
 399       5.080e-01      -9.530e-01       4.171e-02          -0.124           0.000           0.992       1.677e-03          0.9205
 400       4.826e-01      -9.532e-01       3.822e-02          -0.182           0.000           0.983       1.285e-03          0.8793
 401       4.640e-01      -9.533e-01       3.450e-02          -0.263           0.000           0.965       8.174e-04          0.7102
 402       4.533e-01      -9.535e-01       3.148e-02          -0.345           0.000           0.939       2.856e-04          0.5405
Strip 32
 403       7.489e-01      -8.920e-01       3.032e-02           0.284           0.000           0.959       2.797e-04          0.4529
 404       7.424e-01      -8.920e-01       3.211e-02           0.248          -0.000           0.969       8.141e-04          0.6942
 405       7.277e-01      -8.918e-01       3.550e-02           0.178          -0.000           0.984       1.284e-03          0.7694
 406       7.055e-01      -8.916e-01       3.918e-02           0.132           0.000           0.991       1.679e-03          0.8410
 407       6.772e-01      -8.914e-01       4.262e-02           0.091           0.000           0.996       1.977e-03          0.9137
 408       6.444e-01      -8.913e-01       4.519e-02           0.043           0.000           0.999       2.160e-03          0.9332
 409       6.090e-01      -8.913e-01       4.632e-02          -0.000           0.000           1.000       2.223e-03          0.9271
 410       5.731e-01      -8.913e-01       4.600e-02          -0.036           0.000           0.999       2.160e-03          0.9380
 411       5.388e-01      -8.913e-01       4.443e-02          -0.078          -0.000           0.997       1.974e-03          0.9353
 412       5.080e-01      -8.915e-01       4.171e-02          -0.124          -0.000           0.992       1.677e-03          0.9218
 413       4.826e-01      -8.917e-01       3.822e-02          -0.182          -0.000           0.983       1.285e-03          0.8811
 414       4.640e-01      -8.918e-01       3.450e-02          -0.263          -0.000           0.965       8.174e-04          0.7132
 415       4.533e-01      -8.920e-01       3.148e-02          -0.345           0.000           0.939       2.856e-04          0.5477
Strip 33
 416       7.489e-01      -8.305e-01       3.032e-02           0.284           0.000           0.959       2.797e-04          0.4530
 417       7.424e-01      -8.304e-01       3.211e-02           0.248           0.000           0.969       8.141e-04          0.6943
 418       7.277e-01      -8.303e-01       3.550e-02           0.178           0.000           0.984       1.284e-03          0.7695
 419       7.055e-01      -8.301e-01       3.918e-02           0.132           0.000           0.991       1.679e-03          0.8412
 420       6.772e-01      -8.300e-01       4.262e-02           0.091          -0.000           0.996       1.977e-03          0.9140
 421       6.444e-01      -8.298e-01       4.519e-02           0.043          -0.000           0.999       2.160e-03          0.9336
 422       6.090e-01      -8.298e-01       4.632e-02          -0.000           0.000           1.000       2.223e-03          0.9276
 423       5.731e-01      -8.298e-01       4.600e-02          -0.036           0.000           0.999       2.160e-03          0.9386
 424       5.388e-01      -8.299e-01       4.443e-02          -0.078           0.000           0.997       1.974e-03          0.9361
 425       5.080e-01      -8.300e-01       4.171e-02          -0.124           0.000           0.992       1.677e-03          0.9229
 426       4.826e-01      -8.302e-01       3.822e-02          -0.182           0.000           0.983       1.285e-03          0.8828
 427       4.640e-01      -8.303e-01       3.450e-02          -0.263           0.000           0.965       8.174e-04          0.7159
 428       4.533e-01      -8.305e-01       3.148e-02          -0.345           0.000           0.939       2.856e-04          0.5541
Strip 34
 429       7.489e-01      -7.690e-01       3.032e-02           0.284           0.000           0.959       2.797e-04          0.4530
 430       7.424e-01      -7.689e-01       3.211e-02           0.248           0.000           0.969       8.141e-04          0.6943
 431       7.277e-01      -7.688e-01       3.550e-02           0.178           0.000           0.984       1.284e-03          0.7696
 432       7.055e-01      -7.686e-01       3.918e-02           0.132           0.000           0.991       1.679e-03          0.8414
 433       6.772e-01      -7.685e-01       4.262e-02           0.091           0.000           0.996       1.977e-03          0.9142
 434       6.444e-01      -7.684e-01       4.519e-02           0.043           0.000           0.999       2.160e-03          0.9339
 435       6.090e-01      -7.683e-01       4.632e-02          -0.000           0.000           1.000       2.223e-03          0.9280
 436       5.731e-01      -7.683e-01       4.600e-02          -0.036           0.000           0.999       2.160e-03          0.9392
 437       5.388e-01      -7.684e-01       4.443e-02          -0.078           0.000           0.997       1.974e-03          0.9369
 438       5.080e-01      -7.685e-01       4.171e-02          -0.124           0.000           0.992       1.677e-03          0.9239
 439       4.826e-01      -7.687e-01       3.822e-02          -0.182          -0.000           0.983       1.285e-03          0.8842
 440       4.640e-01      -7.688e-01       3.450e-02          -0.263          -0.000           0.965       8.174e-04          0.7184
 441       4.533e-01      -7.690e-01       3.148e-02          -0.345           0.000           0.939       2.856e-04          0.5599
Strip 35
 442       7.489e-01      -7.075e-01       3.032e-02           0.284           0.000           0.959       2.797e-04          0.4530
 443       7.424e-01      -7.074e-01       3.211e-02           0.248           0.000           0.969       8.141e-04          0.6944
 444       7.277e-01      -7.073e-01       3.550e-02           0.178           0.000           0.984       1.284e-03          0.7697
 445       7.055e-01      -7.071e-01       3.918e-02           0.132           0.000           0.991       1.679e-03          0.8416
 446       6.772e-01      -7.070e-01       4.262e-02           0.091           0.000           0.996       1.977e-03          0.9144
 447       6.444e-01      -7.069e-01       4.519e-02           0.043           0.000           0.999       2.160e-03          0.9342
 448       6.090e-01      -7.069e-01       4.632e-02          -0.000           0.000           1.000       2.223e-03          0.9284
 449       5.731e-01      -7.069e-01       4.600e-02          -0.036           0.000           0.999       2.160e-03          0.9398
 450       5.388e-01      -7.069e-01       4.443e-02          -0.078           0.000           0.997       1.974e-03          0.9376
 451       5.080e-01      -7.070e-01       4.171e-02          -0.124           0.000           0.992       1.677e-03          0.9249
 452       4.826e-01      -7.072e-01       3.822e-02          -0.182           0.000           0.983       1.285e-03          0.8855
 453       4.640e-01      -7.073e-01       3.450e-02          -0.263          -0.000           0.965       8.174e-04          0.7206
 454       4.533e-01      -7.074e-01       3.148e-02          -0.345          -0.000           0.939       2.856e-04          0.5650
Strip 36
 455       7.489e-01      -6.460e-01       3.032e-02           0.284          -0.000           0.959       2.797e-04          0.4530
 456       7.424e-01      -6.459e-01       3.211e-02           0.248           0.000           0.969       8.141e-04          0.6944
 457       7.277e-01      -6.458e-01       3.550e-02           0.178           0.000           0.984       1.284e-03          0.7698
 458       7.055e-01      -6.456e-01       3.918e-02           0.132           0.000           0.991       1.679e-03          0.8417
 459       6.772e-01      -6.455e-01       4.262e-02           0.091           0.000           0.996       1.977e-03          0.9147
 460       6.444e-01      -6.454e-01       4.519e-02           0.043           0.000           0.999       2.160e-03          0.9345
 461       6.090e-01      -6.454e-01       4.632e-02          -0.000           0.000           1.000       2.223e-03          0.9288
[...]
 345       1.970e+00       1.940e-01       1.468e-01           0.000          -0.574           0.819       8.131e-04          0.0344
 346       1.945e+00       1.940e-01       1.468e-01           0.000          -0.574           0.819       7.415e-04          0.0432
 347       1.923e+00       1.940e-01       1.468e-01          -0.000          -0.574           0.819       6.268e-04          0.0562
 348       1.904e+00       1.940e-01       1.468e-01           0.000          -0.574           0.819       4.757e-04          0.0790
 349       1.890e+00       1.940e-01       1.468e-01          -0.000          -0.574           0.819       2.969e-04          0.1303
 350       1.882e+00       1.940e-01       1.468e-01           0.000          -0.574           0.819       1.009e-04          0.3131
Strip 28
 351       2.099e+00       2.199e-01       1.650e-01           0.000          -0.574           0.819       1.009e-04          0.0040
 352       2.094e+00       2.199e-01       1.650e-01          -0.000          -0.574           0.819       2.969e-04          0.0069
 353       2.084e+00       2.199e-01       1.650e-01           0.000          -0.574           0.819       4.757e-04          0.0103
 354       2.067e+00       2.199e-01       1.650e-01          -0.000          -0.574           0.819       6.268e-04          0.0139
 355       2.047e+00       2.199e-01       1.650e-01           0.000          -0.574           0.819       7.415e-04          0.0178
 356       2.023e+00       2.199e-01       1.650e-01          -0.000          -0.574           0.819       8.131e-04          0.0222
 357       1.997e+00       2.199e-01       1.650e-01           0.000          -0.574           0.819       8.374e-04          0.0273
 358       1.970e+00       2.199e-01       1.650e-01          -0.000          -0.574           0.819       8.131e-04          0.0337
 359       1.945e+00       2.199e-01       1.650e-01           0.000          -0.574           0.819       7.415e-04          0.0423
 360       1.923e+00       2.199e-01       1.650e-01          -0.000          -0.574           0.819       6.268e-04          0.0553
 361       1.904e+00       2.199e-01       1.650e-01           0.000          -0.574           0.819       4.757e-04          0.0778
 362       1.890e+00       2.199e-01       1.650e-01          -0.000          -0.574           0.819       2.969e-04          0.1285
 363       1.882e+00       2.199e-01       1.650e-01           0.000          -0.574           0.819       1.009e-04          0.3090
Strip 29
 364       2.099e+00       2.457e-01       1.831e-01           0.000          -0.574           0.819       1.009e-04          0.0038
 365       2.094e+00       2.457e-01       1.831e-01          -0.000          -0.574           0.819       2.969e-04          0.0067
 366       2.084e+00       2.457e-01       1.831e-01           0.000          -0.574           0.819       4.757e-04          0.0100
 367       2.067e+00       2.457e-01       1.831e-01          -0.000          -0.574           0.819       6.268e-04          0.0135
 368       2.047e+00       2.457e-01       1.831e-01           0.000          -0.574           0.819       7.415e-04          0.0173
 369       2.023e+00       2.457e-01       1.831e-01          -0.000          -0.574           0.819       8.131e-04          0.0216
 370       1.997e+00       2.457e-01       1.831e-01           0.000          -0.574           0.819       8.374e-04          0.0266
 371       1.970e+00       2.457e-01       1.831e-01          -0.000          -0.574           0.819       8.131e-04          0.0329
 372       1.945e+00       2.457e-01       1.831e-01           0.000          -0.574           0.819       7.415e-04          0.0414
 373       1.923e+00       2.457e-01       1.831e-01          -0.000          -0.574           0.819       6.268e-04          0.0542
 374       1.904e+00       2.457e-01       1.831e-01           0.000          -0.574           0.819       4.757e-04          0.0765
 375       1.890e+00       2.457e-01       1.831e-01          -0.000          -0.574           0.819       2.969e-04          0.1265
 376       1.882e+00       2.457e-01       1.831e-01           0.000          -0.574           0.819       1.009e-04          0.3044
Strip 30
 377       2.099e+00       2.716e-01       2.012e-01           0.000          -0.574           0.819       1.009e-04          0.0037
 378       2.094e+00       2.716e-01       2.012e-01          -0.000          -0.574           0.819       2.969e-04          0.0065
 379       2.084e+00       2.716e-01       2.012e-01           0.000          -0.574           0.819       4.757e-04          0.0097
 380       2.067e+00       2.716e-01       2.012e-01           0.000          -0.574           0.819       6.268e-04          0.0131
 381       2.047e+00       2.716e-01       2.012e-01           0.000          -0.574           0.819       7.415e-04          0.0168
 382       2.023e+00       2.716e-01       2.012e-01          -0.000          -0.574           0.819       8.131e-04          0.0209
 383       1.997e+00       2.716e-01       2.012e-01          -0.000          -0.574           0.819       8.374e-04          0.0258
 384       1.970e+00       2.716e-01       2.012e-01           0.000          -0.574           0.819       8.131e-04          0.0320
 385       1.945e+00       2.716e-01       2.012e-01           0.000          -0.574           0.819       7.415e-04          0.0404
 386       1.923e+00       2.716e-01       2.012e-01          -0.000          -0.574           0.819       6.268e-04          0.0530
 387       1.904e+00       2.716e-01       2.012e-01           0.000          -0.574           0.819       4.757e-04          0.0750
 388       1.890e+00       2.716e-01       2.012e-01          -0.000          -0.574           0.819       2.969e-04          0.1242
 389       1.882e+00       2.716e-01       2.012e-01          -0.000          -0.574           0.819       1.009e-04          0.2991
Strip 31
 390       2.099e+00       2.975e-01       2.193e-01           0.000          -0.574           0.819       1.009e-04          0.0036
 391       2.094e+00       2.975e-01       2.193e-01          -0.000          -0.574           0.819       2.969e-04          0.0062
 392       2.084e+00       2.975e-01       2.193e-01           0.000          -0.574           0.819       4.757e-04          0.0093
 393       2.067e+00       2.975e-01       2.193e-01          -0.000          -0.574           0.819       6.268e-04          0.0126
 394       2.047e+00       2.975e-01       2.193e-01          -0.000          -0.574           0.819       7.415e-04          0.0161
 395       2.023e+00       2.975e-01       2.193e-01          -0.000          -0.574           0.819       8.131e-04          0.0201
 396       1.997e+00       2.975e-01       2.193e-01           0.000          -0.574           0.819       8.374e-04          0.0249
 397       1.970e+00       2.975e-01       2.193e-01           0.000          -0.574           0.819       8.131e-04          0.0310
 398       1.945e+00       2.975e-01       2.193e-01           0.000          -0.574           0.819       7.415e-04          0.0392
 399       1.923e+00       2.975e-01       2.193e-01          -0.000          -0.574           0.819       6.268e-04          0.0517
 400       1.904e+00       2.975e-01       2.193e-01           0.000          -0.574           0.819       4.757e-04          0.0732
 401       1.890e+00       2.975e-01       2.193e-01          -0.000          -0.574           0.819       2.969e-04          0.1216
 402       1.882e+00       2.975e-01       2.193e-01          -0.000          -0.574           0.819       1.009e-04          0.2930
Strip 32
 403       2.099e+00       3.233e-01       2.374e-01          -0.000          -0.574           0.819       1.009e-04          0.0034
 404       2.094e+00       3.234e-01       2.374e-01          -0.000          -0.574           0.819       2.969e-04          0.0059
 405       2.084e+00       3.234e-01       2.374e-01           0.000          -0.574           0.819       4.757e-04          0.0088
 406       2.067e+00       3.234e-01       2.374e-01          -0.000          -0.574           0.819       6.268e-04          0.0119
 407       2.047e+00       3.234e-01       2.374e-01           0.000          -0.574           0.819       7.415e-04          0.0153
 408       2.023e+00       3.234e-01       2.374e-01          -0.000          -0.574           0.819       8.131e-04          0.0192
 409       1.997e+00       3.234e-01       2.374e-01          -0.000          -0.574           0.819       8.374e-04          0.0238
 410       1.970e+00       3.234e-01       2.374e-01           0.000          -0.574           0.819       8.131e-04          0.0297
 411       1.945e+00       3.234e-01       2.374e-01           0.000          -0.574           0.819       7.415e-04          0.0378
 412       1.923e+00       3.234e-01       2.374e-01          -0.000          -0.574           0.819       6.268e-04          0.0500
 413       1.904e+00       3.234e-01       2.374e-01           0.000          -0.574           0.819       4.757e-04          0.0711
 414       1.890e+00       3.234e-01       2.374e-01          -0.000          -0.574           0.819       2.969e-04          0.1184
 415       1.882e+00       3.234e-01       2.374e-01           0.000          -0.574           0.819       1.009e-04          0.2856
Strip 33
 416       2.099e+00       3.492e-01       2.555e-01          -0.000          -0.574           0.819       1.009e-04          0.0032
 417       2.094e+00       3.492e-01       2.555e-01          -0.000          -0.574           0.819       2.969e-04          0.0056
 418       2.084e+00       3.492e-01       2.555e-01           0.000          -0.574           0.819       4.757e-04          0.0083
 419       2.067e+00       3.492e-01       2.555e-01           0.000          -0.574           0.819       6.268e-04          0.0112
 420       2.047e+00       3.492e-01       2.555e-01          -0.000          -0.574           0.819       7.415e-04          0.0144
 421       2.023e+00       3.492e-01       2.555e-01           0.000          -0.574           0.819       8.131e-04          0.0181
 422       1.997e+00       3.492e-01       2.555e-01          -0.000          -0.574           0.819       8.374e-04          0.0225
 423       1.970e+00       3.492e-01       2.555e-01           0.000          -0.574           0.819       8.131e-04          0.0282
 424       1.945e+00       3.492e-01       2.555e-01           0.000          -0.574           0.819       7.415e-04          0.0361
 425       1.923e+00       3.492e-01       2.555e-01          -0.000          -0.574           0.819       6.268e-04          0.0480
 426       1.904e+00       3.492e-01       2.555e-01           0.000          -0.574           0.819       4.757e-04          0.0686
 427       1.890e+00       3.492e-01       2.555e-01          -0.000          -0.574           0.819       2.969e-04          0.1145
 428       1.882e+00       3.492e-01       2.555e-01           0.000          -0.574           0.819       1.009e-04          0.2767
Strip 34
 429       2.099e+00       3.751e-01       2.736e-01           0.000          -0.574           0.819       1.009e-04          0.0029
 430       2.094e+00       3.751e-01       2.736e-01          -0.000          -0.574           0.819       2.969e-04          0.0052
 431       2.084e+00       3.751e-01       2.736e-01           0.000          -0.574           0.819       4.757e-04          0.0077
 432       2.067e+00       3.751e-01       2.736e-01          -0.000          -0.574           0.819       6.268e-04          0.0104
 433       2.047e+00       3.751e-01       2.736e-01          -0.000          -0.574           0.819       7.415e-04          0.0133
 434       2.023e+00       3.751e-01       2.736e-01           0.000          -0.574           0.819       8.131e-04          0.0167
 435       1.997e+00       3.751e-01       2.736e-01           0.000          -0.574           0.819       8.374e-04          0.0209
 436       1.970e+00       3.751e-01       2.736e-01          -0.000          -0.574           0.819       8.131e-04          0.0263
 437       1.945e+00       3.751e-01       2.736e-01           0.000          -0.574           0.819       7.415e-04          0.0339
 438       1.923e+00       3.751e-01       2.736e-01          -0.000          -0.574           0.819       6.268e-04          0.0454
 439       1.904e+00       3.751e-01       2.736e-01           0.000          -0.574           0.819       4.757e-04          0.0654
 440       1.890e+00       3.751e-01       2.736e-01          -0.000          -0.574           0.819       2.969e-04          0.1097
 441       1.882e+00       3.751e-01       2.736e-01           0.000          -0.574           0.819       1.009e-04          0.2656
Strip 35
 442       2.099e+00       4.010e-01       2.918e-01           0.000          -0.574           0.819       1.009e-04          0.0027
 443       2.094e+00       4.010e-01       2.918e-01          -0.000          -0.574           0.819       2.969e-04          0.0047
 444       2.084e+00       4.010e-01       2.918e-01           0.000          -0.574           0.819       4.757e-04          0.0069
 445       2.067e+00       4.010e-01       2.918e-01          -0.000          -0.574           0.819       6.268e-04          0.0093
 446       2.047e+00       4.010e-01       2.918e-01           0.000          -0.574           0.819       7.415e-04          0.0120
 447       2.023e+00       4.010e-01       2.918e-01          -0.000          -0.574           0.819       8.131e-04          0.0151
 448       1.997e+00       4.010e-01       2.918e-01           0.000          -0.574           0.819       8.374e-04          0.0189
 449       1.970e+00       4.010e-01       2.918e-01          -0.000          -0.574           0.819       8.131e-04          0.0240
 450       1.945e+00       4.010e-01       2.918e-01           0.000          -0.574           0.819       7.415e-04          0.0311
 451       1.923e+00       4.010e-01       2.918e-01          -0.000          -0.574           0.819       6.268e-04          0.0422
 452       1.904e+00       4.010e-01       2.918e-01           0.000          -0.574           0.819       4.757e-04          0.0613
 453       1.890e+00       4.010e-01       2.918e-01          -0.000          -0.574           0.819       2.969e-04          0.1036
 454       1.882e+00       4.010e-01       2.918e-01           0.000          -0.574           0.819       1.009e-04          0.2515
Strip 36
 455       2.099e+00       4.268e-01       3.099e-01           0.000          -0.574           0.819       1.009e-04          0.0023
 456       2.094e+00       4.268e-01       3.099e-01          -0.000          -0.574           0.819       2.969e-04          0.0041
 457       2.084e+00       4.268e-01       3.099e-01           0.000          -0.574           0.819       4.757e-04          0.0060
 458       2.067e+00       4.268e-01       3.099e-01          -0.000          -0.574           0.819       6.268e-04          0.0081
 459       2.047e+00       4.268e-01       3.099e-01           0.000          -0.574           0.819       7.415e-04          0.0103
 460       2.023e+00       4.268e-01       3.099e-01           0.000          -0.574           0.819       8.131e-04          0.0130
 461       1.997e+00       4.268e-01       3.099e-01          -0.000          -0.574           0.819       8.374e-04          0.0163
 462       1.970e+00       4.268e-01       3.099e-01           0.000          -0.574           0.819       8.131e-04          0.0208
 463       1.945e+00       4.268e-01       3.099e-01           0.000          -0.574           0.819       7.415e-04          0.0274
 464       1.923e+00       4.268e-01       3.099e-01          -0.000          -0.574           0.819       6.268e-04          0.0377
 465       1.904e+00       4.268e-01       3.099e-01           0.000          -0.574           0.819       4.757e-04          0.0558
 466       1.890e+00       4.268e-01       3.099e-01          -0.000          -0.574           0.819       2.969e-04          0.0954
 467       1.882e+00       4.268e-01       3.099e-01           0.000          -0.574           0.819       1.009e-04          0.2328
Strip 37
 468       2.099e+00       4.527e-01       3.280e-01           0.000          -0.574           0.819       1.009e-04          0.0019
 469       2.094e+00       4.527e-01       3.280e-01          -0.000          -0.574           0.819       2.969e-04          0.0033
 470       2.084e+00       4.527e-01       3.280e-01           0.000          -0.574           0.819       4.757e-04          0.0049
 471       2.067e+00       4.527e-01       3.280e-01          -0.000          -0.574           0.819       6.268e-04          0.0065
 472       2.047e+00       4.527e-01       3.280e-01           0.000          -0.574           0.819       7.415e-04          0.0083
 473       2.023e+00       4.527e-01       3.280e-01           0.000          -0.574           0.819       8.131e-04          0.0103
 474       1.997e+00       4.527e-01       3.280e-01           0.000          -0.574           0.819       8.374e-04          0.0129
 475       1.970e+00       4.527e-01       3.280e-01          -0.000          -0.574           0.819       8.131e-04          0.0166
 476       1.945e+00       4.527e-01       3.280e-01           0.000          -0.574           0.819       7.415e-04          0.0222
 477       1.923e+00       4.527e-01       3.280e-01          -0.000          -0.574           0.819       6.268e-04          0.0313
 478       1.904e+00       4.527e-01       3.280e-01          -0.000          -0.574           0.819       4.757e-04          0.0476
 479       1.890e+00       4.527e-01       3.280e-01           0.000          -0.574           0.819       2.969e-04          0.0835
 480       1.882e+00       4.527e-01       3.280e-01           0.000          -0.574           0.819       1.009e-04          0.2062
Strip 38
 481       2.099e+00       4.786e-01       3.461e-01           0.000          -0.574           0.819       1.009e-04          0.0014
 482       2.094e+00       4.786e-01       3.461e-01          -0.000          -0.574           0.819       2.969e-04          0.0023
 483       2.084e+00       4.786e-01       3.461e-01           0.000          -0.574           0.819       4.757e-04          0.0034
 484       2.067e+00       4.786e-01       3.461e-01          -0.000          -0.574           0.819       6.268e-04          0.0044
 485       2.047e+00       4.786e-01       3.461e-01          -0.000          -0.574           0.819       7.415e-04          0.0055
 486       2.023e+00       4.786e-01       3.461e-01           0.000          -0.574           0.819       8.131e-04          0.0067
 487       1.997e+00       4.786e-01       3.461e-01           0.000          -0.574           0.819       8.374e-04          0.0084
 488       1.970e+00       4.786e-01       3.461e-01          -0.000          -0.574           0.819       8.131e-04          0.0107
 489       1.945e+00       4.786e-01       3.461e-01           0.000          -0.574           0.819       7.415e-04          0.0143
 490       1.923e+00       4.786e-01       3.461e-01          -0.000          -0.574           0.819       6.268e-04          0.0208
 491       1.904e+00       4.786e-01       3.461e-01          -0.000          -0.574           0.819       4.757e-04          0.0336
 492       1.890e+00       4.786e-01       3.461e-01           0.000          -0.574           0.819       2.969e-04          0.0633
 493       1.882e+00       4.786e-01       3.461e-01           0.000          -0.574           0.819       1.009e-04          0.1618






